16
0 1
S        1.885950   -0.000154   -0.635299 
C        2.585098    0.000214    1.056376 
H        2.284080   -0.899508    1.612830 
H        3.679035    0.000178    0.939185 
H        2.284099    0.900186    1.612433 
C        0.127276   -0.000055   -0.267770 
C       -0.570007   -1.212018   -0.146690 
C       -0.569931    1.211964   -0.146878 
C       -1.944550   -1.210277    0.107858 
H       -0.027138   -2.153595   -0.257751 
C       -1.944477    1.210351    0.107671 
H       -0.027017    2.153497   -0.258100 
C       -2.633300    0.000068    0.236394 
H       -2.480196   -2.158691    0.201186 
H       -2.480057    2.158815    0.200849 
H       -3.708649    0.000115    0.432388 
