16
0 1
Se       1.583596   -0.000288   -0.434169 
C        2.132123    0.000909    1.458767 
H        1.762455   -0.900213    1.965716 
H        3.231497    0.000914    1.464125 
H        1.762457    0.902671    1.964578 
C       -0.335903   -0.000100   -0.161351 
C       -1.036938   -1.212259   -0.079705 
C       -1.036836    1.212177   -0.080542 
C       -2.424683   -1.210000    0.094708 
H       -0.492919   -2.156586   -0.155468 
C       -2.424570    1.210158    0.093941 
H       -0.492739    2.156407   -0.156958 
C       -3.119794    0.000138    0.182196 
H       -2.964473   -2.158589    0.158550 
H       -2.964277    2.158836    0.157161 
H       -4.204668    0.000231    0.315974 
