8
-1 1
C        0.669074    0.067173    0.000002 
O        0.470640    1.292062   -0.000038 
O        1.684471   -0.628506    0.000084 
O       -0.556042   -0.749040   -0.000150 
C       -1.748980   -0.034831    0.000041 
H       -1.864091    0.627784   -0.883384 
H       -2.584540   -0.764807   -0.000280 
H       -1.864483    0.626844    0.884244 
