14
1 1
C       -1.698736    0.000042    0.012259 
C       -1.318464   -1.273060    0.000827 
C       -1.318280    1.273123    0.000900 
C        0.113478   -1.210404   -0.007635 
H       -1.893193   -2.201153   -0.000618 
C        0.113598    1.210458   -0.007722 
H       -1.893093    2.201171   -0.000463 
C        0.829771   -0.000026   -0.010797 
H        0.620462   -2.181715   -0.012515 
H        0.620707    2.181700   -0.012634 
C        2.337271   -0.000089    0.005914 
H        2.704652    0.000342    1.045996 
H        2.744293   -0.891584   -0.490747 
H        2.744347    0.890966   -0.491501 
