15
1 1
C       -1.105229    2.864910   -0.135358 
H       -1.369822    3.413915    0.780729 
C       -0.648469    1.661326   -0.080133 
H       -1.242851    3.375888   -1.100048 
C       -0.165100    0.387847   -0.021679 
C        1.253396    0.159834    0.078875 
C       -1.072755   -0.729680   -0.060270 
C        1.729386   -1.135331    0.137581 
H        1.930778    1.015863    0.107174 
C       -0.569341   -2.014370    0.000032 
H       -2.145956   -0.543051   -0.136663 
C        0.822453   -2.213445    0.098291 
H        2.801507   -1.326907    0.214001 
H       -1.242615   -2.873382   -0.027961 
H        1.210317   -3.235089    0.145428 
