18
1 1
C        2.670018    0.000149   -0.625035 
H        3.056289    0.000256   -1.640823 
C        2.664036   -0.000074    0.640192 
H        3.039687    0.000562    1.659932 
C        1.203871   -0.000019    0.000762 
C        0.465221    1.235457   -0.003258 
C        0.465309   -1.235495   -0.003239 
C       -0.912403    1.225013   -0.011235 
H        1.016934    2.179189   -0.002215 
C       -0.912382   -1.225221   -0.011273 
H        1.017147   -2.179154   -0.002187 
C       -1.629782   -0.000191   -0.013572 
H       -1.464660    2.167492   -0.018661 
H       -1.464431   -2.167816   -0.018744 
C       -3.122656    0.000071    0.008722 
H       -3.465488    0.004660    1.061195 
H       -3.541157    0.897300   -0.469039 
H       -3.541707   -0.900627   -0.461848 
