13
1 1
C       -3.356023   -0.000055   -0.000372 
C       -2.038806    0.000070   -0.000215 
C       -0.685224    0.000068    0.000344 
C        0.051242    1.263942    0.000365 
C        0.051172   -1.263897    0.000336 
C        1.423784    1.246514   -0.000090 
H       -0.518007    2.196483    0.000598 
C        1.423716   -1.246574   -0.000067 
H       -0.518179   -2.196376    0.000589 
C        2.104084   -0.000057   -0.000314 
H        1.996721    2.176290   -0.000238 
H        1.996570   -2.176401   -0.000208 
H        3.199218   -0.000067   -0.000662 
