24
1 1
S        0.544111    2.685005    0.000000 
C       -0.213988    3.555235    1.409360 
H       -1.309491    3.513354    1.337335 
H        0.140345    3.051878    2.318658 
H        0.145535    4.593699    1.389071 
C       -0.213988    3.555235   -1.409360 
H        0.145535    4.593699   -1.389071 
H        0.140345    3.051878   -2.318658 
H       -1.309491    3.513354   -1.337335 
C       -0.213988    1.097895    0.000000 
H       -1.307087    1.081204    0.000000 
C        0.586965    0.003877    0.000000 
H        1.671052    0.170072    0.000000 
C        0.181887   -1.392605    0.000000 
C        1.194334   -2.377209    0.000000 
C       -1.170180   -1.804972    0.000000 
C        0.868132   -3.732265    0.000000 
H        2.244042   -2.071424    0.000000 
C       -1.491688   -3.157386    0.000000 
H       -1.975324   -1.066850    0.000000 
C       -0.474077   -4.123433    0.000000 
H        1.659919   -4.484286    0.000000 
H       -2.538694   -3.468015    0.000000 
H       -0.732921   -5.184882    0.000000 
