20
1 1
S       -0.196041   -1.646258    0.000000 
C        0.844965   -2.109602    1.418550 
H        1.832989   -1.636195    1.349339 
H        0.312140   -1.779951    2.320697 
H        0.928241   -3.205698    1.412443 
C        0.844965   -2.109602   -1.418550 
H        0.928241   -3.205698   -1.412443 
H        0.312140   -1.779951   -2.320697 
H        1.832989   -1.636195   -1.349339 
C       -0.216726    0.145425    0.000000 
C       -1.487648    0.735557    0.000000 
C        0.957501    0.911997    0.000000 
C       -1.579186    2.130583    0.000000 
H       -2.391190    0.121495    0.000000 
C        0.844965    2.302339    0.000000 
H        1.947734    0.450701    0.000000 
C       -0.418462    2.908578    0.000000 
H       -2.562298    2.605949    0.000000 
H        1.748503    2.915783    0.000000 
H       -0.495088    3.998243    0.000000 
