10
1 1
S        0.647356    0.825425   -0.000000 
C       -0.180706    1.599103    1.420611 
H       -1.271590    1.519127    1.322527 
H        0.186943    1.087793    2.320878 
H        0.152397    2.649667    1.422055 
C       -0.180706    1.599103   -1.420611 
H        0.152397    2.649667   -1.422055 
H        0.186943    1.087793   -2.320878 
H       -1.271590    1.519127   -1.322527 
Br      -0.180706   -1.225977    0.000000 
