23
1 1
S        2.033388    0.519512    0.000003 
C        2.682481   -0.420373   -1.417059 
H        2.394349   -1.477456   -1.348729 
H        2.263813    0.044044   -2.319918 
H        3.775577   -0.305324   -1.407977 
C        2.682473   -0.420385    1.417062 
H        3.775567   -0.305319    1.407998 
H        2.263784    0.044013    2.319921 
H        2.394358   -1.477472    1.348712 
C        0.273476    0.219167    0.000000 
C       -0.542310    1.357326    0.000003 
C       -0.278769   -1.071376   -0.000006 
C       -1.929113    1.194751   -0.000004 
H       -0.107038    2.359436    0.000003 
C       -1.662963   -1.207139   -0.000011 
H        0.347879   -1.966412   -0.000012 
C       -2.514119   -0.081655   -0.000005 
H       -2.566720    2.081770   -0.000011 
H       -2.097346   -2.210104   -0.000023 
C       -4.007450   -0.260387    0.000008 
H       -4.332690   -0.830896    0.885363 
H       -4.535242    0.702790    0.000059 
H       -4.332727   -0.830830   -0.885373 
