17
1 1
S       -0.429782   -0.905099    0.053726 
C        0.463193   -1.765658    1.386398 
H        1.546987   -1.718567    1.212281 
H        0.191228   -1.264118    2.324835 
H        0.107700   -2.805605    1.399736 
C        0.200735   -1.752725   -1.428833 
H       -0.151607   -2.792926   -1.385507 
H       -0.239885   -1.243181   -2.296239 
H        1.298059   -1.705915   -1.457809 
C        0.339466    0.691383   -0.010692 
H        1.429966    0.703250   -0.112823 
C       -0.431214    1.788684    0.066953 
H       -1.517685    1.666244    0.168109 
C        0.080742    3.186317    0.026041 
H        1.173323    3.238693   -0.076260 
H       -0.387130    3.729997   -0.812685 
H       -0.222266    3.720890    0.942769 
