25
1 1
S       -3.384078   -0.502859    0.002391 
C       -4.024621    0.458407   -1.416971 
H       -3.703728    1.504714   -1.333070 
H       -3.618222   -0.014222   -2.320834 
H       -5.119408    0.361365   -1.394545 
C       -4.022275    0.458969    1.422424 
H       -5.117106    0.362011    1.401787 
H       -3.614481   -0.013372    2.325808 
H       -3.701437    1.505220    1.337638 
C       -1.731773   -0.235774    0.000940 
C       -0.508144   -0.169686   -0.000944 
C        0.904022   -0.085365   -0.002569 
C        1.687703   -1.263877   -0.004459 
C        1.549305    1.173753   -0.006343 
C        3.073471   -1.173942   -0.009129 
H        1.199019   -2.240187   -0.005164 
C        2.936495    1.241517   -0.011001 
H        0.953799    2.088840   -0.008535 
C        3.725986    0.074752   -0.009778 
H        3.668398   -2.090564   -0.014471 
H        3.424118    2.219402   -0.017838 
C        5.226931    0.158628    0.016886 
H        5.591134    0.141951    1.059438 
H        5.689899   -0.693562   -0.501890 
H        5.590667    1.089854   -0.440918 
