15
1 1
S       -0.979518    0.095148   -0.529019 
C       -1.651709    1.402150    0.557481 
H       -1.393408    1.188931    1.602744 
H       -1.209573    2.348134    0.217347 
H       -2.738901    1.410915    0.394727 
C       -1.652960   -1.427827    0.224366 
H       -2.740150   -1.397593    0.064196 
H       -1.211645   -2.269357   -0.326204 
H       -1.394516   -1.463371    1.290523 
C        0.663873    0.049947   -0.151610 
C        1.873881    0.033471   -0.018696 
C        3.311695    0.011834    0.158714 
H        3.623904   -0.924919    0.648531 
H        3.825246    0.088702   -0.813090 
H        3.631858    0.854830    0.792649 
