22
1 1
S       -0.615531   -3.328555    0.000000 
C        0.321241   -3.999176    1.420531 
H        1.378953   -3.718767    1.335720 
H       -0.135832   -3.573849    2.323716 
H        0.182580   -5.089555    1.401121 
C        0.321241   -3.999176   -1.420531 
H        0.182580   -5.089555   -1.401121 
H       -0.135832   -3.573849   -2.323716 
H        1.378953   -3.718767   -1.335720 
C       -0.289071   -1.684949    0.000000 
C       -0.182285   -0.465077    0.000000 
C       -0.049692    0.944532    0.000000 
C       -1.204698    1.764815    0.000000 
C        1.233766    1.543417    0.000000 
C       -1.079340    3.147347    0.000000 
H       -2.195705    1.307165    0.000000 
C        1.359530    2.925821    0.000000 
H        2.126479    0.915288    0.000000 
C        0.201206    3.710453    0.000000 
H       -1.952051    3.802696    0.000000 
H        2.335806    3.413640    0.000000 
F        0.321241    5.028266    0.000000 
