10
1 1
S        1.377474    0.322340   -0.000000 
C        1.377474    1.463493    1.420673 
H        0.562142    2.193992    1.335646 
H        1.278400    0.849230    2.325836 
H        2.363272    1.955094    1.407190 
C        1.377474    1.463493   -1.420673 
H        2.363272    1.955094   -1.407190 
H        1.278400    0.849230   -2.325836 
H        0.562142    2.193992   -1.335646 
I       -0.886357   -0.617283    0.000000 
