24
1 1
S        0.008071    3.188669    0.000000 
C       -0.898071    3.904075    1.409203 
H       -1.966729    3.659202    1.337813 
H       -0.455941    3.476247    2.318706 
H       -0.738034    4.991294    1.387840 
C       -0.898071    3.904075   -1.409203 
H       -0.738034    4.991294   -1.387840 
H       -0.455941    3.476247   -2.318706 
H       -1.966729    3.659202   -1.337813 
C       -0.439734    1.488961    0.000000 
H       -1.510433    1.268291    0.000000 
C        0.552648    0.563243    0.000000 
H        1.585720    0.931302    0.000000 
C        0.420169   -0.881657    0.000000 
C        1.599685   -1.661411    0.000000 
C       -0.829429   -1.546069    0.000000 
C        1.544480   -3.050630    0.000000 
H        2.574306   -1.166516    0.000000 
C       -0.898071   -2.931225    0.000000 
H       -1.761118   -0.976494    0.000000 
C        0.292998   -3.669335    0.000000 
H        2.447239   -3.663751    0.000000 
H       -1.852526   -3.460507    0.000000 
F        0.225494   -4.991633    0.000000 
