10
1 1
S        0.576165    0.332723   -0.000000 
C       -0.241430    1.107725    1.421242 
H       -1.332828    1.050506    1.311916 
H        0.109387    0.575808    2.316708 
H        0.114856    2.150667    1.440103 
C       -0.241430    1.107725   -1.421242 
H        0.114856    2.150667   -1.440103 
H        0.109387    0.575808   -2.316708 
H       -1.332828    1.050506   -1.311916 
Cl      -0.241430   -1.539426    0.000000 
