27
1 1
S       -0.040231    1.305737   -0.436799 
C       -0.079897    2.472641    0.959259 
H        0.824112    3.093525    0.894119 
H       -0.976551    3.088261    0.807270 
H       -0.140361    1.939662    1.915856 
C       -1.445049    0.221225   -0.130512 
C       -2.532834    0.383763   -0.997762 
C       -1.454665   -0.721179    0.905185 
C       -3.667112   -0.410561   -0.805794 
H       -2.499318    1.113181   -1.810566 
C       -2.594334   -1.507957    1.077537 
H       -0.590421   -0.857096    1.558146 
C       -3.696684   -1.351179    0.227483 
H       -4.524705   -0.295598   -1.472081 
H       -2.619388   -2.251044    1.877533 
H       -4.583026   -1.973517    0.369889 
C        1.447172    0.326581   -0.196498 
C        1.966692   -0.254984   -1.361394 
C        2.067845    0.162354    1.048399 
C        3.121705   -1.033949   -1.268163 
H        1.482207   -0.101160   -2.328592 
C        3.228511   -0.612423    1.119562 
H        1.677399    0.627203    1.954575 
C        3.750761   -1.211401   -0.031693 
H        3.535574   -1.493194   -2.168373 
H        3.726516   -0.745101    2.082452 
H        4.658984   -1.814501    0.034888 
