17
1 1
S        0.680080    0.660732   -0.790354 
C        1.099067    2.221013    0.043569 
H        0.995398    2.129664    1.131544 
H        2.136253    2.448672   -0.237341 
H        0.410345    2.974420   -0.368270 
C       -0.947978    0.244708   -0.248392 
C       -1.759781   -0.335318   -1.241995 
C       -1.413704    0.462137    1.060735 
C       -3.073595   -0.674298   -0.917586 
H       -1.375642   -0.507913   -2.250355 
C       -2.726867    0.114026    1.361856 
H       -0.770366    0.881553    1.836209 
C       -3.553467   -0.450209    0.376992 
H       -3.720956   -1.115393   -1.678246 
H       -3.109955    0.276429    2.371491 
H       -4.581587   -0.721831    0.627613 
Br       2.096948   -0.755133    0.245770 
