34
1 1
S       -1.694213    1.405817    0.105526 
C       -2.192256    2.429281   -1.318673 
H       -3.199149    2.812627   -1.104251 
H       -1.469671    3.254280   -1.379713 
H       -2.187034    1.834275   -2.241134 
C       -0.157501    0.699370   -0.388290 
H       -0.144335    0.170857   -1.343935 
C        0.903979    0.833219    0.444364 
H        0.748041    1.385936    1.378590 
C        2.252267    0.329746    0.250115 
C        3.218483    0.598878    1.241705 
C        2.649762   -0.417328   -0.882924 
C        4.527551    0.142420    1.108656 
H        2.936195    1.174200    2.127685 
C        3.955015   -0.868330   -1.008066 
H        1.931878   -0.649282   -1.672982 
C        4.923276   -0.598922   -0.016036 
H        5.256937    0.364525    1.891216 
H        4.241440   -1.444672   -1.891711 
C        6.333057   -1.098951   -0.173327 
H        6.790067   -0.701857   -1.094915 
H        6.967743   -0.809194    0.675377 
H        6.352679   -2.198312   -0.256712 
C       -2.909914    0.077759    0.106745 
C       -3.617327   -0.104052    1.301095 
C       -3.128345   -0.737402   -1.011871 
C       -4.570390   -1.124782    1.370327 
H       -3.431178    0.538581    2.164646 
C       -4.082218   -1.752079   -0.924373 
H       -2.570737   -0.597460   -1.940622 
C       -4.800992   -1.944424    0.262415 
H       -5.131569   -1.276615    2.294815 
H       -4.264714   -2.396184   -1.787306 
H       -5.545886   -2.741182    0.321360 
