31
1 1
S       -1.184008    1.394617    0.158566 
C       -1.624930    2.497777   -1.224255 
H       -2.605667    2.932871   -0.988288 
H       -0.854130    3.279558   -1.259541 
H       -1.660134    1.938511   -2.168147 
C        0.305940    0.614188   -0.375810 
H        0.276148    0.113912   -1.346247 
C        1.381935    0.663480    0.444009 
H        1.271182    1.196581    1.395815 
C        2.699850    0.087538    0.214066 
C        3.689501    0.278745    1.202096 
C        3.029902   -0.648236   -0.945952 
C        4.970306   -0.246960    1.037924 
H        3.447259    0.845704    2.105006 
C        4.308212   -1.171498   -1.106640 
H        2.285005   -0.815114   -1.727151 
C        5.281096   -0.972102   -0.115964 
H        5.726843   -0.091593    1.809982 
H        4.554389   -1.739466   -2.006444 
H        6.283796   -1.385620   -0.247547 
C       -2.472714    0.139094    0.121998 
C       -3.170697   -0.055824    1.319977 
C       -2.755032   -0.610669   -1.027805 
C       -4.179547   -1.022971    1.361117 
H       -2.934890    0.535746    2.207540 
C       -3.764163   -1.572453   -0.967815 
H       -2.205524   -0.460541   -1.959773 
C       -4.474055   -1.777209    0.222286 
H       -4.734178   -1.184281    2.287933 
H       -3.997022   -2.165337   -1.854983 
H       -5.262562   -2.532216    0.259403 
