20
1 1
S       -1.559281   -0.563162    0.000008 
C       -2.246082    0.346012    1.418570 
H       -2.008497    1.415519    1.349346 
H       -3.332597    0.179145    1.412517 
H       -1.804371   -0.098397    2.320695 
C       -2.246077    0.345968   -1.418586 
H       -1.804359   -0.098470   -2.320694 
H       -3.332592    0.179104   -1.412536 
H       -2.008488    1.415477   -1.349393 
C        0.190646   -0.178166    0.000005 
C        1.052861   -1.282758    0.000022 
C        0.671924    1.138967   -0.000010 
C        2.432454   -1.056520    0.000003 
H        0.659007   -2.301747    0.000027 
C        2.051711    1.343658   -0.000007 
H       -0.001237    1.999332   -0.000019 
C        2.927924    0.250026   -0.000004 
H        3.117776   -1.906710    0.000006 
H        2.444999    2.362492   -0.000017 
H        4.006696    0.421728   -0.000015 
