31
1 1
S       -1.660529    1.409190    0.120792 
C       -2.150237    2.452277   -1.291865 
H       -3.153788    2.841162   -1.071616 
H       -1.421294    3.272327   -1.343894 
H       -2.150868    1.867993   -2.221149 
C       -0.129248    0.694289   -0.384282 
H       -0.125308    0.171598   -1.343303 
C        0.935864    0.814743    0.444174 
H        0.787852    1.362848    1.382218 
C        2.280977    0.301714    0.242585 
C        3.251696    0.560596    1.236168 
C        2.664362   -0.442189   -0.897559 
C        4.557668    0.099769    1.105768 
H        2.974989    1.133363    2.125059 
C        3.963704   -0.907749   -1.039986 
H        1.940708   -0.663333   -1.684805 
C        4.897653   -0.630299   -0.033900 
H        5.315864    0.293442    1.866340 
H        4.276154   -1.483570   -1.912854 
F        6.138400   -1.075924   -0.171398 
C       -2.883491    0.088753    0.111061 
C       -3.578438   -0.110107    1.310148 
C       -3.119982   -0.704070   -1.020040 
C       -4.537137   -1.126001    1.371560 
H       -3.378922    0.515748    2.182981 
C       -4.079347   -1.714115   -0.939937 
H       -2.572940   -0.550353   -1.952893 
C       -4.785606   -1.923679    0.251507 
H       -5.088952   -1.291069    2.299397 
H       -4.276208   -2.340903   -1.812400 
H       -5.535055   -2.716573    0.304429 
