24
1 1
S       -0.755544    0.864916   -0.526718 
C       -0.798187    2.433877    0.399022 
H       -0.016905    3.077105   -0.028216 
H       -1.791551    2.871600    0.230518 
H       -0.621650    2.257690    1.467951 
C       -1.922886   -0.157166    0.341656 
H       -1.768296   -0.273379    1.418623 
C       -2.913443   -0.740760   -0.350446 
H       -2.977639   -0.565728   -1.432282 
C       -3.953865   -1.626270    0.244882 
H       -3.832646   -1.756391    1.329128 
H       -4.957622   -1.215693    0.041509 
H       -3.923138   -2.616611   -0.241071 
C        0.869629    0.188508   -0.164505 
C        1.649706   -0.151336   -1.276832 
C        1.328330    0.001428    1.146715 
C        2.923182   -0.687995   -1.065226 
H        1.274659   -0.000217   -2.291639 
C        2.601355   -0.536762    1.337810 
H        0.716738    0.263522    2.012892 
C        3.395585   -0.879516    0.235898 
H        3.544426   -0.955611   -1.922557 
H        2.974806   -0.689384    2.352697 
H        4.391092   -1.299604    0.396094 
