31
1 1
S       -1.205502    1.662733    0.174091 
C       -1.598309    2.816735   -1.181643 
H       -2.570028    3.271763   -0.945927 
H       -0.806167    3.577745   -1.184384 
H       -1.635158    2.286373   -2.142125 
C        0.271744    0.860976   -0.360244 
H        0.246129    0.393052   -1.346878 
C        1.335126    0.855990    0.479587 
H        1.219357    1.362367    1.445242 
C        2.639827    0.255328    0.258176 
C        3.617520    0.387742    1.269859 
C        2.977933   -0.453186   -0.918403 
C        4.886884   -0.161373    1.122065 
H        3.375547    0.931289    2.186790 
C        4.240435   -1.005938   -1.078415 
H        2.247564   -0.577456   -1.720576 
C        5.182738   -0.852820   -0.053527 
H        5.650067   -0.065622    1.896157 
H        4.517817   -1.556039   -1.979269 
F        6.388075   -1.381540   -0.207929 
C       -2.524451    0.449026    0.093009 
C       -3.239789    0.234682    1.279798 
C       -2.822660   -0.264954   -1.077655 
C       -4.272346   -0.702337    1.296759 
H       -2.998300    0.793117    2.187032 
C       -3.852626   -1.200878   -1.059403 
H       -2.265603   -0.106373   -2.003641 
C       -4.564286   -1.407091    0.127815 
H       -4.853008   -0.894431    2.200730 
H       -4.116176   -1.776256   -1.948708 
F       -5.542569   -2.297867    0.139422 
