17
1 1
S        0.584154    1.055484   -0.697836 
C        0.928068    2.451408    0.422218 
H        0.847377    2.153818    1.474573 
H        1.948162    2.784483    0.187998 
H        0.197093    3.232399    0.164674 
C       -1.034026    0.496308   -0.278868 
C       -1.799890    0.031633   -1.368672 
C       -1.549593    0.490796    1.032030 
C       -3.099065   -0.411428   -1.150276 
H       -1.387784    0.029288   -2.380723 
C       -2.847467    0.049312    1.245989 
H       -0.951324    0.818681    1.883795 
C       -3.606848   -0.396358    0.153115 
H       -3.726932   -0.766203   -1.969603 
H       -3.287665    0.033504    2.244791 
F       -4.836380   -0.816863    0.365946 
I        2.237641   -0.643245    0.111946 
