20
1 1
S        1.987033    0.527159    0.000005 
C        2.643820   -0.404790    1.418360 
H        2.369974   -1.465728    1.350009 
H        3.735518   -0.275678    1.410314 
H        2.219442    0.055172    2.321006 
C        2.643812   -0.404753   -1.418379 
H        2.219428    0.055234   -2.321009 
H        3.735512   -0.275644   -1.410338 
H        2.369963   -1.465692   -1.350053 
C        0.229471    0.212714    0.000006 
C       -0.594177    1.349326    0.000023 
C       -0.310933   -1.083600   -0.000007 
C       -1.978669    1.188809    0.000005 
H       -0.163630    2.353367    0.000024 
C       -1.692923   -1.241112    0.000001 
H        0.323364   -1.972951   -0.000015 
C       -2.509230   -0.102944    0.000003 
H       -2.652133    2.047744    0.000004 
H       -2.153981   -2.230517   -0.000004 
F       -3.820335   -0.260195   -0.000012 
