17
1 1
S        1.670038    0.309920    0.636963 
C        2.301655   -1.311252    1.153991 
H        2.068987   -2.079443    0.406358 
H        3.387180   -1.190342    1.271576 
H        1.826404   -1.526969    2.122958 
C       -0.036389    0.089393    0.300656 
C       -0.857186    1.172467    0.682008 
C       -0.571241   -1.054529   -0.326836 
C       -2.228116    1.094153    0.468489 
H       -0.429256    2.061496    1.151870 
C       -1.938948   -1.125507   -0.541444 
H        0.065404   -1.877391   -0.656759 
C       -2.750983   -0.052258   -0.139452 
H       -2.899218    1.903978    0.760364 
H       -2.397728   -1.991922   -1.021621 
F       -4.047452   -0.130007   -0.347436 
Cl       2.621878    0.472773   -1.216689 
