17
1 1
S        1.099384    0.703611   -0.755489 
C        1.576825    2.189142    0.178046 
H        1.428181    2.046418    1.255231 
H        2.636574    2.363393   -0.052299 
H        0.953678    3.006549   -0.215359 
C       -0.564953    0.363322   -0.311007 
C       -1.355509   -0.167212   -1.353306 
C       -1.095402    0.572689    0.978342 
C       -2.692972   -0.457632   -1.113560 
H       -0.930854   -0.339038   -2.345473 
C       -2.430434    0.280700    1.213022 
H       -0.479888    0.950294    1.796540 
C       -3.213445   -0.229715    0.165015 
H       -3.340375   -0.857166   -1.896251 
H       -2.884096    0.431195    2.194451 
F       -4.478456   -0.505738    0.398486 
Br       2.399659   -0.846158    0.263580 
