22
1 1
S        1.225114    1.167831    0.322996 
C        1.489188    2.083409   -1.242280 
H        0.743787    2.890461   -1.247713 
H        2.507289    2.493782   -1.198309 
H        1.360345    1.405811   -2.095210 
C        2.330598   -0.106724    0.215438 
C        3.183081   -0.973924    0.262312 
C        4.191028   -2.015239    0.307124 
H        4.971575   -1.767937    1.044546 
H        3.733552   -2.975499    0.596398 
H        4.666148   -2.141454   -0.679001 
C       -0.402004    0.433310    0.145049 
C       -1.390082    0.924671    1.009513 
C       -0.671228   -0.565697   -0.801370 
C       -2.684857    0.416796    0.912364 
H       -1.159920    1.690881    1.753578 
C       -1.963347   -1.073176   -0.890717 
H        0.113507   -0.957560   -1.452295 
C       -2.953279   -0.573105   -0.035489 
H       -3.485661    0.769959    1.564472 
H       -2.220790   -1.853936   -1.608825 
F       -4.178472   -1.060193   -0.126360 
