30
1 1
S       -0.025493    1.607286    0.344509 
C       -0.001833    2.674928   -1.129636 
H       -0.924550    3.271154   -1.119444 
H        0.874639    3.325992   -1.011346 
H        0.087802    2.079038   -2.046076 
C        1.411699    0.550882    0.145998 
C        2.457451    0.769800    1.050055 
C        1.501811   -0.434386   -0.847091 
C        3.616299   -0.002236    0.941875 
H        2.375775    1.530190    1.830518 
C        2.664612   -1.193845   -0.931692 
H        0.677902   -0.623547   -1.538062 
C        3.742557   -0.993480   -0.044295 
H        4.435061    0.168875    1.644655 
H        2.738933   -1.965451   -1.702330 
C        4.984009   -1.836242   -0.154810 
H        5.402666   -1.789204   -1.172955 
H        5.760951   -1.515105    0.552168 
H        4.754690   -2.895487    0.048714 
C       -1.483681    0.582190    0.155936 
C       -2.044502    0.114825    1.354902 
C       -2.054355    0.264768   -1.085223 
C       -3.176756   -0.695111    1.312559 
H       -1.605218    0.381280    2.319106 
C       -3.193215   -0.537406   -1.125151 
H       -1.638955    0.635844   -2.023053 
C       -3.736515   -1.011053    0.072313 
H       -3.639143   -1.075865    2.224965 
H       -3.669607   -0.800593   -2.071269 
F       -4.816504   -1.773945    0.028647 
