20
1 1
S        1.137210    0.702750   -0.752142 
C        1.619520    2.179099    0.192702 
H        1.461884    2.030612    1.267712 
H        2.681862    2.348096   -0.028726 
H        1.004326    3.003246   -0.198826 
C       -0.530436    0.372980   -0.320153 
C       -1.313582   -0.161398   -1.362545 
C       -1.076782    0.595112    0.959535 
C       -2.656112   -0.439307   -1.123925 
H       -0.881021   -0.345640   -2.349126 
C       -2.416588    0.308228    1.170651 
H       -0.469657    0.975872    1.782611 
C       -3.233782   -0.211529    0.138697 
H       -3.267988   -0.842573   -1.933834 
H       -2.847593    0.481103    2.159899 
C       -4.681968   -0.504728    0.399213 
H       -5.232731    0.431254    0.595826 
H       -5.160091   -1.009747   -0.450545 
H       -4.800274   -1.135359    1.295115 
Br       2.430123   -0.857475    0.273403 
