32
1 1
S       -0.820996    1.823809    0.172823 
C       -0.984957    2.682277   -1.439124 
H       -1.973997    3.160254   -1.428193 
H       -0.186434    3.435418   -1.478523 
H       -0.897425    1.953925   -2.254616 
C        0.660159    1.034976    0.051480 
C        1.775857    0.534790    0.066781 
C        3.071309   -0.049092    0.082822 
C        3.909607    0.129444    1.207313 
C        3.526341   -0.806280   -1.020849 
C        5.178645   -0.443219    1.220288 
H        3.556634    0.714727    2.058545 
C        4.798208   -1.371695   -0.993618 
H        2.878577   -0.942668   -1.888986 
C        5.623193   -1.191692    0.123584 
H        5.826370   -0.306037    2.088774 
H        5.150684   -1.956056   -1.846234 
H        6.620317   -1.638024    0.139381 
C       -2.095312    0.557072    0.120519 
C       -3.180203    0.744894    0.982251 
C       -2.013788   -0.550836   -0.732580 
C       -4.214581   -0.193827    0.969607 
H       -3.224658    1.603393    1.656819 
C       -3.054540   -1.474099   -0.721157 
H       -1.149596   -0.701819   -1.383467 
C       -4.172478   -1.314155    0.124278 
H       -5.066673   -0.052748    1.638580 
H       -2.999411   -2.343935   -1.380825 
C       -5.278643   -2.334199    0.120416 
H       -6.110360   -2.038445    0.774150 
H       -5.674821   -2.481690   -0.897146 
H       -4.906178   -3.313399    0.464491 
