27
1 1
S        1.278855    0.895730    0.473538 
C        1.463538    2.388920   -0.554779 
H        0.770220    3.139982   -0.152516 
H        2.503296    2.724498   -0.440682 
H        1.235061    2.166020   -1.605004 
C        2.308141   -0.296479   -0.353173 
H        2.101456   -0.471279   -1.413415 
C        3.261228   -0.928545    0.348389 
H        3.383111   -0.686615    1.412217 
C        4.185657   -1.954496   -0.212641 
H        4.010917   -2.146012   -1.280399 
H        5.232256   -1.635080   -0.071136 
H        4.075264   -2.900903    0.344056 
C       -0.413379    0.376889    0.197648 
C       -1.192613    0.181567    1.343422 
C       -0.940684    0.161867   -1.084513 
C       -2.519151   -0.230038    1.197248 
H       -0.776304    0.347876    2.339693 
C       -2.264464   -0.249224   -1.204687 
H       -0.339325    0.306943   -1.984910 
C       -3.078651   -0.452119   -0.071017 
H       -3.129087   -0.380718    2.090990 
H       -2.678899   -0.418147   -2.201902 
C       -4.508508   -0.891734   -0.231902 
H       -4.999120   -1.051174    0.737848 
H       -5.088341   -0.136894   -0.788367 
H       -4.568856   -1.829828   -0.807067 
