35
1 1
S       -1.361491    1.851744    0.183744 
C       -1.589619    2.708062   -1.421984 
H       -2.606811    3.122445   -1.403558 
H       -0.840337    3.510167   -1.461208 
H       -1.460612    1.991128   -2.242093 
C        0.161818    1.155591    0.051532 
C        1.307224    0.724499    0.058169 
C        2.633399    0.222979    0.064306 
C        3.472723    0.445790    1.180783 
C        3.133676   -0.505520   -1.038648 
C        4.770566   -0.049422    1.183076 
H        3.094940    1.004495    2.039336 
C        4.435658   -0.991699   -1.017657 
H        2.494063   -0.685867   -1.904956 
C        5.279859   -0.773504    0.087485 
H        5.407596    0.125976    2.053645 
H        4.809672   -1.555847   -1.875565 
C        6.697367   -1.277004    0.091951 
H        7.390207   -0.474195   -0.216022 
H        7.006906   -1.602139    1.096526 
H        6.834679   -2.115384   -0.605807 
C       -2.561139    0.512697    0.127541 
C       -3.663856    0.641985    0.977084 
C       -2.406485   -0.593849   -0.716740 
C       -4.641830   -0.355374    0.960483 
H       -3.765003    1.500398    1.645666 
C       -3.391832   -1.576279   -0.709591 
H       -1.527808   -0.697758   -1.357369 
C       -4.525839   -1.476569    0.123327 
H       -5.507558   -0.260074    1.620006 
H       -3.279301   -2.445498   -1.362764 
C       -5.570236   -2.559962    0.116408 
H       -6.430279   -2.303180    0.749714 
H       -5.937351   -2.747381   -0.905387 
H       -5.147876   -3.509703    0.484780 
