20
1 1
S        1.711112    0.288749    0.640421 
C        2.339631   -1.349611    1.103159 
H        2.097576   -2.092870    0.333772 
H        3.426427   -1.238213    1.216943 
H        1.869600   -1.593974    2.067748 
C        0.003944    0.084449    0.308048 
C       -0.808008    1.162515    0.711979 
C       -0.546165   -1.043270   -0.333660 
C       -2.181925    1.086549    0.501993 
H       -0.372954    2.041787    1.193645 
C       -1.916723   -1.090460   -0.534668 
H        0.081020   -1.865536   -0.682880 
C       -2.762313   -0.033288   -0.120960 
H       -2.816042    1.915021    0.825140 
H       -2.351606   -1.961781   -1.030595 
C       -4.242636   -0.119943   -0.349742 
H       -4.671152   -0.961455    0.220847 
H       -4.761594    0.799220   -0.047419 
H       -4.463139   -0.313582   -1.412209 
Cl       2.662896    0.498220   -1.214626 
