25
1 1
S        1.280420    1.160862    0.319424 
C        1.555181    2.061074   -1.252760 
H        0.824611    2.881468   -1.259783 
H        2.580923    2.452635   -1.218082 
H        1.407750    1.380224   -2.100001 
C        2.367190   -0.131305    0.213531 
C        3.203203   -1.014091    0.259444 
C        4.192108   -2.074107    0.303235 
H        4.968393   -1.850582    1.052569 
H        3.714499   -3.029801    0.574249 
H        4.676792   -2.196385   -0.678709 
C       -0.359486    0.452854    0.150314 
C       -1.334889    0.962311    1.013395 
C       -0.653258   -0.541182   -0.792795 
C       -2.638677    0.471596    0.911854 
H       -1.090502    1.725727    1.755938 
C       -1.958388   -1.016070   -0.868814 
H        0.120500   -0.949764   -1.446833 
C       -2.974143   -0.519993   -0.024028 
H       -3.406708    0.865663    1.581349 
H       -2.198209   -1.793656   -1.598622 
C       -4.375472   -1.057195   -0.127611 
H       -5.060674   -0.550351    0.565225 
H       -4.767395   -0.936120   -1.150516 
H       -4.396901   -2.136209    0.097849 
