33
1 1
S        0.025741    1.623322    0.345403 
C        0.073196    2.683276   -1.133765 
H       -0.837474    3.297677   -1.127320 
H        0.962622    3.317049   -1.019280 
H        0.149605    2.080269   -2.046644 
C        1.445670    0.541553    0.148648 
C        2.511413    0.767039    1.027036 
C        1.502226   -0.470023   -0.819711 
C        3.656940   -0.024436    0.916804 
H        2.455052    1.547368    1.789877 
C        2.652316   -1.248743   -0.906895 
H        0.661063   -0.663798   -1.488207 
C        3.749897   -1.041952   -0.045934 
H        4.491339    0.151829    1.599678 
H        2.700414   -2.040953   -1.658518 
C        4.976989   -1.905750   -0.158145 
H        5.376329   -1.891737   -1.185001 
H        5.772268   -1.577417    0.524808 
H        4.737123   -2.955802    0.078184 
C       -1.449206    0.622328    0.156853 
C       -2.013884    0.155325    1.352344 
C       -2.030068    0.319861   -1.080574 
C       -3.159622   -0.635266    1.297575 
H       -1.566550    0.405461    2.317409 
C       -3.183248   -0.465297   -1.109279 
H       -1.612291    0.685820   -2.019574 
C       -3.768018   -0.958190    0.070712 
H       -3.596077   -1.001465    2.230167 
H       -3.638674   -0.699367   -2.074595 
C       -5.026390   -1.782338    0.030119 
H       -4.998118   -2.594788    0.771666 
H       -5.903191   -1.156046    0.269386 
H       -5.194558   -2.221574   -0.963213 
