20
1 1
Se      -0.208085   -1.759917    0.000000 
C        0.975817   -2.203862    1.494230 
H        1.938332   -1.690999    1.376729 
H        0.462636   -1.880474    2.409507 
H        1.101682   -3.295381    1.492027 
C        0.975817   -2.203862   -1.494230 
H        1.101682   -3.295381   -1.492027 
H        0.462636   -1.880474   -2.409507 
H        1.938332   -1.690999   -1.376729 
C       -0.168036    0.164480    0.000000 
C       -1.416292    0.804442    0.000000 
C        1.030101    0.894249    0.000000 
C       -1.467951    2.198198    0.000000 
H       -2.346966    0.231814    0.000000 
C        0.975817    2.285530    0.000000 
H        2.006329    0.403959    0.000000 
C       -0.272328    2.919235    0.000000 
H       -2.419635    2.732760    0.000000 
H        1.884088    2.891067    0.000000 
F       -0.316878    4.240092    0.000000 
