10
1 1
Se       0.664085    1.041019   -0.000000 
C       -0.305608    1.860684    1.495281 
H        0.048907    1.371565    2.412118 
H       -0.020320    2.923793    1.489451 
H       -1.385777    1.728692    1.355519 
C       -0.305608    1.860684   -1.495281 
H       -0.020320    2.923793   -1.489451 
H        0.048907    1.371565   -2.412118 
H       -1.385777    1.728692   -1.355519 
I       -0.305608   -1.316433    0.000000 
