10
1 1
Se       0.593168    0.671153   -0.000000 
C       -0.364108    1.493227    1.495680 
H       -0.025204    0.983966    2.407832 
H       -0.056620    2.550613    1.505468 
H       -1.445487    1.383271    1.344439 
C       -0.364108    1.493227   -1.495680 
H       -0.056620    2.550613   -1.505468 
H       -0.025204    0.983966   -2.407832 
H       -1.445487    1.383271   -1.344439 
Br      -0.364108   -1.444960    0.000000 
