24
1 1
Se      -0.158195   -2.767070    0.000000 
C        0.894808   -3.492277    1.484837 
H        1.946673   -3.202592    1.363969 
H        0.472113   -3.072714    2.407137 
H        0.777213   -4.584549    1.470701 
C        0.894808   -3.492277   -1.484837 
H        0.777213   -4.584549   -1.470701 
H        0.472113   -3.072714   -2.407137 
H        1.946673   -3.202592   -1.363969 
C        0.383764   -0.949607    0.000000 
H        1.462067   -0.772497    0.000000 
C       -0.570739    0.011951    0.000000 
H       -1.620282   -0.307186    0.000000 
C       -0.379912    1.453485    0.000000 
C       -1.526338    2.279965    0.000000 
C        0.894808    2.066685    0.000000 
C       -1.415147    3.666302    0.000000 
H       -2.520418    1.825343    0.000000 
C        1.019544    3.448413    0.000000 
H        1.802695    1.459897    0.000000 
C       -0.140128    4.234159    0.000000 
H       -2.292677    4.314996    0.000000 
H        1.994863    3.938174    0.000000 
F       -0.019156    5.553397    0.000000 
