13
1 1
Se       0.000000    0.000000    0.425657 
C        0.000000    1.728254   -0.488260 
H        0.000000    1.574125   -1.575129 
H       -0.899586    2.266454   -0.159714 
H        0.899586    2.266454   -0.159714 
C        1.496712   -0.864127   -0.488260 
H        2.412600   -0.354163   -0.159714 
H        1.513014   -1.912291   -0.159714 
H        1.363233   -0.787063   -1.575129 
C       -1.496712   -0.864127   -0.488260 
H       -1.513014   -1.912291   -0.159714 
H       -2.412600   -0.354163   -0.159714 
H       -1.363233   -0.787063   -1.575129 
