17
1 1
Se       0.420455    0.708968   -0.061326 
C       -0.344911    1.598074    1.506360 
H       -1.439297    1.518547    1.476348 
H        0.066338    1.092374    2.389952 
H       -0.019080    2.646881    1.479138 
C       -0.602815    1.619157   -1.460752 
H       -0.276540    2.668087   -1.474799 
H       -0.350058    1.126989   -2.409160 
H       -1.675758    1.537054   -1.243987 
C       -0.481468   -0.975585    0.004943 
H       -1.571293   -0.932053    0.100536 
C        0.234029   -2.108318   -0.066339 
H        1.326529   -2.047982   -0.161347 
C       -0.349044   -3.480369   -0.026067 
H       -0.070176   -4.031616   -0.940433 
H        0.083683   -4.045507    0.817175 
H       -1.443547   -3.475315    0.069760 
