10
1 1
Se       0.493278    0.252920    0.000000 
C       -0.454448    1.075809    1.495768 
H       -0.126443    0.552019    2.403968 
H       -0.133485    2.129110    1.518238 
H       -1.536295    0.979936    1.337079 
C       -0.454448    1.075809   -1.495768 
H       -0.133485    2.129110   -1.518238 
H       -0.126443    0.552019   -2.403968 
H       -1.536295    0.979936   -1.337079 
Cl      -0.454448   -1.695947   -0.000000 
