25
1 1
Se      -2.935755   -0.415802    0.001819 
C       -3.507364    0.730721   -1.491672 
H       -3.088563    1.734625   -1.351456 
H       -3.127093    0.260375   -2.407697 
H       -4.606264    0.736498   -1.483588 
C       -3.504001    0.731424    1.496060 
H       -4.602920    0.737147    1.490424 
H       -3.121692    0.261501    2.411453 
H       -3.085565    1.735284    1.354451 
C       -1.143168   -0.153848   -0.000425 
C        0.081374   -0.111752   -0.001772 
C        1.496917   -0.049909   -0.003008 
C        2.261978   -1.239715   -0.004844 
C        2.161823    1.198066   -0.006540 
C        3.649439   -1.171688   -0.009167 
H        1.758430   -2.208459   -0.005824 
C        3.550411    1.244300   -0.010847 
H        1.581011    2.122573   -0.008866 
C        4.321778    0.066017   -0.009492 
H        4.229533   -2.097826   -0.014463 
H        4.052844    2.214708   -0.017494 
C        5.824264    0.126210    0.017434 
H        6.189151    0.099310    1.059466 
H        6.273610   -0.730734   -0.505594 
H        6.202492    1.053329   -0.437020 
