29
1 1
Se      -1.691793   -1.389540   -0.185606 
C       -1.968653   -2.055179    1.649072 
H       -3.025549   -2.347469    1.710517 
H       -1.307466   -2.922621    1.774675 
H       -1.728631   -1.250163    2.353356 
C        0.014108   -0.775631   -0.052401 
C        1.201371   -0.479359   -0.055981 
C        2.576316   -0.124706   -0.058283 
C        3.364913   -0.355782   -1.210249 
C        3.168632    0.458122    1.086680 
C        4.711018   -0.011939   -1.217582 
H        2.913016   -0.805465   -2.096226 
C        4.514829    0.801305    1.081014 
H        2.565838    0.637625    1.978813 
C        5.269036    0.562096   -0.071642 
H        5.340316   -0.179377   -2.093367 
H        4.995701    1.251183    1.951304 
F        6.553159    0.889926   -0.077613 
C       -2.766804    0.229429   -0.136598 
C       -3.987011    0.167790   -0.817637 
C       -2.338056    1.375131    0.539131 
C       -4.814374    1.295589   -0.798839 
H       -4.295890   -0.729811   -1.359959 
C       -3.177370    2.491708    0.540687 
H       -1.368582    1.408703    1.041136 
C       -4.410205    2.450196   -0.122365 
H       -5.771903    1.269714   -1.323494 
H       -2.863158    3.400206    1.059315 
H       -5.057684    3.329887   -0.117000 
