17
1 1
Se      -1.109697   -0.567518    0.254708 
C       -1.690417    0.555573    1.742492 
H       -1.393778    1.595570    1.561494 
H       -2.782586    0.454516    1.796773 
H       -1.207863    0.144109    2.641433 
C        0.738431   -0.129656    0.090486 
C        1.574731   -1.219288   -0.208426 
C        1.233000    1.175762    0.241936 
C        2.947667   -0.991669   -0.325731 
H        1.172222   -2.226943   -0.341049 
C        2.604958    1.379715    0.112638 
H        0.573212    2.022751    0.439568 
C        3.457761    0.300502   -0.166063 
H        3.615894   -1.826240   -0.547967 
H        3.013112    2.386477    0.224699 
H        4.531740    0.474216   -0.265693 
Cl      -2.058179    0.579147   -1.358430 
