24
1 1
Se      -0.681768    0.834861   -0.365259 
C       -0.734955    2.178429    1.059909 
H        0.023247    2.933978    0.814925 
H       -1.742264    2.615439    1.044388 
H       -0.523500    1.704464    2.026244 
C       -1.853893   -0.491386    0.367684 
H       -1.625187   -0.831525    1.381976 
C       -2.871917   -0.947664   -0.375832 
H       -3.017445   -0.549486   -1.388822 
C       -3.850471   -1.981360    0.072781 
H       -3.652948   -2.338161    1.093108 
H       -4.875022   -1.574545    0.026717 
H       -3.828590   -2.841567   -0.617970 
C        1.075838    0.072872   -0.093414 
C        1.897508    0.010281   -1.224962 
C        1.498812   -0.396192    1.156496 
C        3.179185   -0.534611   -1.094325 
H        1.554950    0.377798   -2.195349 
C        2.780981   -0.938023    1.266892 
H        0.855782   -0.349882    2.038309 
C        3.617549   -1.006248    0.145797 
H        3.832929   -0.588380   -1.967549 
H        3.127234   -1.308666    2.234212 
H        4.619104   -1.431316    0.242443 
