29
1 1
Se      -1.252504   -1.393764   -0.189174 
C       -1.491746   -2.071109    1.646459 
H       -2.535092   -2.407480    1.713480 
H       -0.794101   -2.910125    1.767991 
H       -1.281519   -1.256935    2.349738 
C        0.426741   -0.708739   -0.061813 
C        1.599790   -0.361706   -0.069184 
C        2.959904    0.053055   -0.074121 
C        3.743487   -0.117034   -1.238293 
C        3.532636    0.632402    1.080926 
C        5.075530    0.288751   -1.239409 
H        3.299874   -0.564971   -2.129538 
C        4.866282    1.031967    1.064812 
H        2.927120    0.762188    1.980062 
C        5.637001    0.861542   -0.091820 
H        5.680989    0.157922   -2.138837 
H        5.309480    1.478716    1.957387 
H        6.682926    1.177248   -0.098634 
C       -2.391555    0.180600   -0.132835 
C       -3.615470    0.067876   -0.800551 
C       -2.001863    1.344694    0.534990 
C       -4.487241    1.161547   -0.775841 
H       -3.893706   -0.843069   -1.337192 
C       -2.885345    2.426686    0.542516 
H       -1.029072    1.418644    1.026142 
C       -4.122541    2.333612   -0.106950 
H       -5.448500    1.095616   -1.290066 
H       -2.602191    3.348725    1.055094 
H       -4.804739    3.186621   -0.097027 
