29
1 1
Se       0.821331    1.668089   -0.201106 
C        0.978745    2.402155    1.621453 
H        1.982438    2.843252    1.687020 
H        0.199354    3.169062    1.721539 
H        0.845453    1.586185    2.341300 
C       -0.781908    0.821333   -0.067235 
C       -1.914700    0.359104   -0.073121 
C       -3.226268   -0.189579   -0.076440 
C       -4.008481   -0.136044   -1.252783 
C       -3.752391   -0.786288    1.091971 
C       -5.293138   -0.673187   -1.252535 
H       -3.600967    0.325452   -2.154286 
C       -5.039100   -1.317815    1.076901 
H       -3.148183   -0.825976    2.000429 
C       -5.808598   -1.262503   -0.091762 
H       -5.897537   -0.632554   -2.161216 
H       -5.446468   -1.778052    1.979627 
H       -6.817551   -1.681605   -0.097673 
C        2.105341    0.219573   -0.119712 
C        3.297697    0.414331   -0.828542 
C        1.851959   -0.953072    0.601493 
C        4.272698   -0.583093   -0.796504 
H        3.477315    1.324229   -1.407167 
C        2.825946   -1.948671    0.626460 
H        0.905616   -1.103233    1.125856 
C        4.023326   -1.748810   -0.069181 
H        5.216639   -0.474531   -1.333651 
H        2.672590   -2.881902    1.171598 
F        4.944367   -2.698884   -0.042060 
