31
1 1
Se      -1.122991    1.560026    0.140629 
C       -1.541669    2.551770   -1.497681 
H       -2.534261    3.000300   -1.358154 
H       -0.771467    3.327558   -1.601621 
H       -1.533222    1.869739   -2.356866 
C        0.470786    0.661845   -0.378205 
H        0.428094    0.107631   -1.318163 
C        1.549124    0.741867    0.435288 
H        1.455619    1.330469    1.356123 
C        2.857421    0.133278    0.239933 
C        3.853637    0.360522    1.215319 
C        3.178243   -0.672641   -0.876587 
C        5.124835   -0.190657    1.089897 
H        3.625516    0.980418    2.086279 
C        4.442390   -1.228586   -1.013976 
H        2.432938   -0.871262   -1.649567 
C        5.403555   -0.980200   -0.026372 
H        5.902273   -0.022056    1.836915 
H        4.706332   -1.853222   -1.869128 
F        6.610717   -1.512108   -0.158842 
C       -2.480655    0.186228    0.085228 
C       -3.267155    0.045127    1.236645 
C       -2.667733   -0.639177   -1.032493 
C       -4.261562   -0.933110    1.270115 
H       -3.116062    0.687776    2.107391 
C       -3.659760   -1.616374   -0.997681 
H       -2.055302   -0.538473   -1.931349 
C       -4.443742   -1.749950    0.153232 
H       -4.895413   -1.071476    2.147876 
H       -3.837694   -2.278629   -1.846970 
F       -5.385379   -2.680035    0.181050 
