31
1 1
Se       0.664321    1.521095   -0.156563 
C        1.021633    2.555994    1.469604 
H        1.982132    3.067373    1.321961 
H        0.202279    3.280489    1.567852 
H        1.060113    1.884294    2.336073 
C       -0.864733    0.524314    0.380053 
H       -0.779384   -0.020261    1.322746 
C       -1.951800    0.530738   -0.423909 
H       -1.905483    1.118184   -1.349133 
C       -3.218199   -0.161304   -0.210174 
C       -4.234264   -0.000472   -1.176076 
C       -3.471039   -0.979521    0.912936 
C       -5.466285   -0.635922   -1.026114 
H       -4.051980    0.629674   -2.050832 
C       -4.700808   -1.612295    1.059680 
H       -2.703581   -1.124949    1.676438 
C       -5.701106   -1.442083    0.091332 
H       -6.244008   -0.502813   -1.781126 
H       -4.887082   -2.243582    1.931270 
H       -6.665293   -1.941614    0.211635 
C        2.109065    0.239966   -0.092115 
C        2.898271    0.137119   -1.245732 
C        2.354321   -0.558499    1.033889 
C        3.954300   -0.774440   -1.273083 
H        2.701715    0.758296   -2.122955 
C        3.407942   -1.469174    1.005205 
H        1.740279   -0.487713    1.934478 
C        4.194135   -1.564602   -0.147950 
H        4.592070   -0.881382   -2.152387 
H        3.632185   -2.108606    1.860986 
F        5.194504   -2.431506   -0.169903 
