18
1 1
Se       1.575147   -0.573690   -0.164880 
C        2.162106   -0.548747    1.715553 
H        1.748237   -1.466379    2.156136 
H        3.260416   -0.572912    1.701703 
H        1.774495    0.352379    2.205037 
C        2.247768    1.098949   -0.649974 
N        2.686771    2.119395   -0.985391 
C       -0.306994   -0.196779   -0.055857 
C       -1.140487   -1.132524   -0.687713 
C       -0.809404    0.932863    0.607983 
C       -2.520096   -0.941159   -0.635165 
H       -0.736046   -1.999333   -1.216358 
C       -2.186992    1.119050    0.649054 
H       -0.153146    1.671979    1.073198 
C       -3.023699    0.179224    0.031294 
H       -3.209441   -1.642588   -1.108840 
H       -2.628271    1.984967    1.146425 
F       -4.327982    0.364037    0.077257 
