17
1 1
Se       1.026193    0.817249   -0.441749 
C        1.482573    1.857508    1.150270 
H        1.270764    1.275985    2.055122 
H        2.553709    2.084508    1.067489 
H        0.877524    2.774655    1.100452 
C       -0.788298    0.341770   -0.131050 
C       -1.582617    0.248899   -1.290884 
C       -1.317427    0.084938    1.147017 
C       -2.929911   -0.075497   -1.167389 
H       -1.162851    0.436095   -2.282685 
C       -2.662078   -0.241693    1.264908 
H       -0.699161    0.125933    2.045425 
C       -3.451613   -0.315999    0.107650 
H       -3.582296   -0.147468   -2.039569 
H       -3.116349   -0.446937    2.236153 
F       -4.725976   -0.626871    0.229314 
Br       2.257089   -1.132771    0.065432 
