30
1 1
Se       0.018458    1.536873   -0.275192 
C       -0.009474    2.425144    1.468895 
H        0.924706    2.993576    1.569055 
H       -0.873821    3.101749    1.443421 
H       -0.127179    1.682871    2.267052 
C       -1.496370    0.346613   -0.109497 
C       -2.606041    0.650077   -0.904979 
C       -1.495086   -0.757039    0.752392 
C       -3.739991   -0.162070   -0.817320 
H       -2.600292    1.503255   -1.588261 
C       -2.635881   -1.553204    0.819156 
H       -0.620407   -1.009336    1.355699 
C       -3.777429   -1.272570    0.040782 
H       -4.609624    0.073441   -1.435429 
H       -2.640332   -2.417540    1.488446 
C       -4.993237   -2.155257    0.128490 
H       -5.351657   -2.229464    1.167887 
H       -5.817392   -1.779157   -0.492809 
H       -4.756463   -3.179864   -0.202891 
C        1.556523    0.381196   -0.116044 
C        2.101769   -0.067782   -1.328306 
C        2.122457    0.020113    1.113993 
C        3.216840   -0.903467   -1.310286 
H        1.669279    0.227999   -2.287485 
C        3.242894   -0.810461    1.130003 
H        1.717898    0.374555    2.063002 
C        3.772637   -1.264118   -0.080524 
H        3.667269   -1.271855   -2.233752 
H        3.714331   -1.109881    2.067856 
F        4.835382   -2.053008   -0.060642 
