17
1 1
Se      -1.482052   -0.442008    0.404975 
C       -2.068944    1.108578    1.436339 
H       -1.752474    2.031046    0.935166 
H       -3.163830    1.041653    1.489295 
H       -1.615540    1.006019    2.433224 
C        0.376392   -0.132477    0.184568 
C        1.175761   -1.292972    0.190528 
C        0.934048    1.146938    0.002625 
C        2.553868   -1.168577    0.046711 
H        0.734966   -2.285548    0.315055 
C        2.309248    1.265095   -0.146542 
H        0.314712    2.044863   -0.036059 
C        3.101862    0.107348   -0.119663 
H        3.210335   -2.040592    0.056626 
H        2.786484    2.236477   -0.289576 
F        4.405351    0.229843   -0.260739 
Cl      -2.356850    0.160127   -1.523154 
