32
1 1
Se      -1.315363   -1.682356   -0.203725 
C       -1.527059   -2.404090    1.618807 
H       -2.557224   -2.779616    1.681768 
H       -0.798821   -3.219270    1.722214 
H       -1.343797   -1.597542    2.338280 
C        0.333419   -0.935128   -0.066179 
C        1.495636   -0.549381   -0.065987 
C        2.837738   -0.090043   -0.062592 
C        3.632990   -0.208146   -1.226188 
C        3.397069    0.490921    1.097758 
C        4.946219    0.244646   -1.217787 
H        3.209775   -0.652622   -2.129147 
C        4.713780    0.936706    1.086232 
H        2.792256    0.589316    2.001480 
C        5.514594    0.822112   -0.065567 
H        5.548894    0.151322   -2.124754 
H        5.133688    1.386424    1.989310 
C        6.947368    1.280478   -0.064122 
H        7.624408    0.422795    0.094683 
H        7.225496    1.736121   -1.026434 
H        7.142666    2.007364    0.737053 
C       -2.513287   -0.160041   -0.123937 
C       -3.729644   -0.296728   -0.804751 
C       -2.176255    1.008648    0.568271 
C       -4.643664    0.756911   -0.772661 
H       -3.974466   -1.204752   -1.362102 
C       -3.089428    2.060575    0.593453 
H       -1.211326    1.111503    1.069698 
C       -4.310908    1.919055   -0.073556 
H       -5.603448    0.694613   -1.288667 
H       -2.869817    2.993039    1.116793 
F       -5.174148    2.922493   -0.046742 
