27
1 1
Se       1.150777   -0.837852   -0.339142 
C        1.335437   -2.117959    1.133021 
H        0.676540   -2.965696    0.903027 
H        2.387355   -2.432657    1.149792 
H        1.049687   -1.640697    2.078408 
C        2.154500    0.635502    0.364264 
H        1.861727    0.988931    1.357381 
C        3.137041    1.171151   -0.373643 
H        3.352733    0.751938   -1.365410 
C        3.985077    2.322826    0.053708 
H        3.721571    2.695364    1.053326 
H        5.048661    2.029476    0.049093 
H        3.889088    3.148018   -0.672520 
C       -0.681303   -0.274630   -0.120837 
C       -1.487152   -0.333625   -1.262395 
C       -1.188162    0.179958    1.104287 
C       -2.822906    0.066339   -1.168173 
H       -1.091645   -0.685565   -2.218417 
C       -2.521861    0.574385    1.172944 
H       -0.566838    0.233707    2.001327 
C       -3.363763    0.525153    0.043089 
H       -3.454160    0.019031   -2.058691 
H       -2.920986    0.929896    2.126509 
C       -4.802694    0.953255    0.148086 
H       -5.317659    0.897002   -0.820565 
H       -5.348818    0.315766    0.862833 
H       -4.878952    1.988327    0.518628 
