20
1 1
Se      -1.515164   -0.419937    0.421346 
C       -2.098856    1.178852    1.377544 
H       -1.774029    2.074897    0.835605 
H       -3.194225    1.121716    1.428982 
H       -1.649836    1.120925    2.379876 
C        0.343195   -0.128974    0.193340 
C        1.134950   -1.290334    0.243236 
C        0.913880    1.137134   -0.030391 
C        2.515746   -1.169539    0.099681 
H        0.688429   -2.275827    0.400281 
C        2.291193    1.227782   -0.176747 
H        0.302849    2.038726   -0.103407 
C        3.119017    0.082941   -0.112218 
H        3.135731   -2.067516    0.148591 
H        2.743152    2.207469   -0.351285 
C        4.605925    0.217505   -0.270516 
H        5.026215    0.835878    0.540496 
H        5.111730   -0.757030   -0.256202 
H        4.853603    0.725045   -1.217121 
Cl      -2.392844    0.101257   -1.533833 
