23
1 1
Se      -1.756327   -0.425498   -0.000272 
C       -2.339637    0.698239    1.492680 
H       -1.939887    1.713105    1.376137 
H       -3.438273    0.698161    1.488624 
H       -1.960137    0.226525    2.408634 
C       -2.339846    0.700125   -1.491700 
H       -1.960952    0.229302   -2.408364 
H       -3.438481    0.700446   -1.487141 
H       -1.939692    1.714722   -1.374207 
C        0.148495   -0.152824   -0.000159 
C        0.935898   -1.309712   -0.000457 
C        0.729311    1.123338    0.000283 
C        2.327058   -1.179353   -0.000298 
H        0.483199   -2.304401   -0.000795 
C        2.117556    1.226919    0.000425 
H        0.124958    2.033666    0.000541 
C        2.942111    0.082610    0.000130 
H        2.943409   -2.081414   -0.000506 
H        2.574786    2.219800    0.000784 
C        4.439700    0.225860    0.000044 
H        4.779152    0.788540    0.885020 
H        4.944122   -0.749850    0.000742 
H        4.779046    0.787116   -0.885901 
