20
1 1
Se       1.058057    0.810900   -0.444390 
C        1.517941    1.851413    1.146329 
H        1.294981    1.274175    2.051195 
H        2.591579    2.067890    1.069494 
H        0.921701    2.773922    1.091688 
C       -0.759050    0.351930   -0.138808 
C       -1.545960    0.248694   -1.299688 
C       -1.303748    0.118134    1.136329 
C       -2.898043   -0.062981   -1.171026 
H       -1.118519    0.416528   -2.291811 
C       -2.652882   -0.194529    1.235715 
H       -0.693769    0.165948    2.040178 
C       -3.476647   -0.289400    0.090560 
H       -3.514640   -0.134519   -2.069865 
H       -3.083965   -0.376670    2.223404 
C       -4.933696   -0.622597    0.233734 
H       -5.462516    0.185778    0.766955 
H       -5.421258   -0.764581   -0.739942 
H       -5.070458   -1.538812    0.830491 
Br       2.282726   -1.144122    0.078246 
