22
0 1
C        0.327186    0.000105   -0.000050 
C        1.030135   -1.054527   -0.600782 
C        1.030182    1.054656    0.600789 
C        2.425200   -1.058378   -0.596787 
H        0.488702   -1.881571   -1.057567 
C        2.425248    1.058447    0.596789 
H        0.488801    1.881675    1.057667 
C        3.105926    0.000034   -0.000026 
H        2.991022   -1.872130   -1.053979 
H        2.991108    1.872140    1.054039 
F        4.445966   -0.000022    0.000017 
N       -1.102437    0.000046    0.000005 
C       -1.883283    1.146162   -0.253000 
C       -1.883072   -1.146199    0.252953 
C       -3.350210    0.739275   -0.193460 
O       -1.449649    2.247336   -0.477376 
C       -3.350068   -0.739539    0.193647 
O       -1.449212   -2.247310    0.477209 
H       -3.866529    1.394180    0.524364 
H       -3.798122    0.937377   -1.179715 
H       -3.797789   -0.937696    1.179980 
H       -3.866407   -1.394530   -0.524081 
