13
0 1
C        1.766871    0.000021   -0.000003 
N        2.926556    0.000027    0.000002 
N        0.418455    0.000009   -0.000003 
C       -0.365004    1.197905   -0.000005 
C       -0.364973   -1.197912    0.000005 
C       -1.823589    0.766676   -0.000349 
O        0.093071    2.301829    0.000153 
C       -1.823569   -0.766720    0.000349 
O        0.093134   -2.301823   -0.000151 
H       -2.311214    1.209512    0.881618 
H       -2.310384    1.208575   -0.883258 
H       -2.310353   -1.208632    0.883258 
H       -2.311181   -1.209567   -0.881619 
