22
0 1
C        0.717084    0.000007    0.000004 
C        1.417323   -1.047693   -0.614395 
C        1.417338    1.047700    0.614400 
C        2.813561   -1.044345   -0.606975 
H        0.872465   -1.866992   -1.081618 
C        2.813575    1.044341    0.606964 
H        0.872491    1.867001    1.081633 
C        3.516639   -0.000004   -0.000011 
H        3.353840   -1.866270   -1.083187 
H        3.353867    1.866261    1.083172 
H        4.609415   -0.000008   -0.000017 
N       -0.713644    0.000007    0.000016 
C       -1.494250    1.145638   -0.255450 
C       -1.494240   -1.145629    0.255493 
C       -2.961667    0.738953   -0.194894 
O       -1.062163    2.246282   -0.484662 
C       -2.961661   -0.738970    0.194874 
O       -1.062142   -2.246279    0.484652 
H       -3.477448    1.395310    0.522025 
H       -3.409734    0.935612   -1.181356 
H       -3.409765   -0.935640    1.181317 
H       -3.477402   -1.395335   -0.522067 
