26
0 1
C        0.414664    0.390494   -0.000018 
H        0.244919    1.468945    0.000006 
C       -0.583686   -0.513414   -0.000037 
H       -0.327105   -1.573205   -0.000065 
C       -2.017666   -0.191710   -0.000012 
C       -2.942718   -1.254904   -0.000068 
C       -2.527292    1.124121    0.000067 
C       -4.318900   -1.018717   -0.000050 
H       -2.568462   -2.282330   -0.000125 
C       -3.900570    1.360257    0.000081 
H       -1.843793    1.976084    0.000118 
C       -4.805252    0.290925    0.000020 
H       -5.013929   -1.862427   -0.000094 
H       -4.271026    2.388767    0.000141 
H       -5.881565    0.480523    0.000031 
N        1.794128    0.105700   -0.000022 
C        2.730687    1.162925   -0.000039 
C        2.406960   -1.159386    0.000025 
C        4.128001    0.562790   -0.000038 
O        2.432853    2.330394   -0.000062 
C        3.917472   -0.952509    0.000108 
O        1.827568   -2.217676    0.000022 
H        4.668153    0.938198   -0.882783 
H        4.668236    0.938366    0.882585 
H        4.336128   -1.460007   -0.882494 
H        4.335981   -1.459792    0.882906 
