25
0 1
C       -0.293326    0.002593    0.000842 
C       -0.999683   -1.039098    0.617581 
C       -0.997846    1.047277   -0.609862 
C       -2.393963   -1.030375    0.612751 
H       -0.460423   -1.859723    1.089252 
C       -2.393519    1.044373   -0.597374 
H       -0.458262    1.869739   -1.077863 
C       -3.119794    0.007673    0.006940 
H       -2.929990   -1.851637    1.097106 
H       -2.928571    1.871773   -1.071809 
C       -4.628576   -0.008848   -0.012223 
H       -5.007969   -0.668340   -0.812544 
H       -5.040590   -0.384861    0.937433 
H       -5.042593    0.994885   -0.190533 
N        1.137340    0.000118   -0.000501 
C        1.920333    1.143805    0.252842 
C        1.914552   -1.147037   -0.255621 
C        3.387170    0.735182    0.187062 
O        1.491102    2.245659    0.482738 
C        3.383391   -0.745417   -0.192233 
O        1.479524   -2.246712   -0.485229 
H        3.898929    1.385333   -0.538474 
H        3.841857    0.939362    1.168895 
H        3.835550   -0.951756   -1.174780 
H        3.893236   -1.397958    0.532510 
