12
0 1
N       -0.559498    0.000042    0.000310 
C       -1.312469   -1.184377    0.000043 
C       -1.312665    1.184344    0.000047 
C       -2.782326   -0.767433    0.000013 
O       -0.865217   -2.299514    0.000001 
C       -2.782451    0.767140   -0.000218 
O       -0.865630    2.299567    0.000098 
H       -3.265207   -1.212389   -0.883444 
H       -3.265135   -1.212083    0.883668 
H       -3.265150    1.211711   -0.883973 
H       -3.265587    1.212019    0.883137 
I        1.508751    0.000037   -0.000031 
