17
0 1
C       -1.238942   -0.003255    0.000115 
C       -2.449504   -0.004429    0.000205 
C       -3.907149   -0.001304   -0.000034 
H       -4.292517    1.030999   -0.028940 
H       -4.310165   -0.534243   -0.876946 
H       -4.311232   -0.484942    0.904547 
N        0.117672   -0.001152    0.000060 
C        0.900227   -1.186376    0.000003 
C        0.895632    1.187032    0.000004 
C        2.362970   -0.762882   -0.000087 
O        0.451989   -2.299175    0.000003 
C        2.359999    0.769313    0.000032 
O        0.442905    2.298051   -0.000048 
H        2.850351   -1.205273    0.882342 
H        2.850174   -1.205114   -0.882696 
H        2.845515    1.213437    0.882623 
H        2.845617    1.213598   -0.882419 
