24
0 1
C        0.524481   -0.000070    0.000002 
C       -0.689805   -0.000081    0.000054 
C       -2.119194   -0.000069    0.000060 
C       -2.835256    1.215988    0.000006 
C       -2.835342   -1.216038    0.000013 
C       -4.229770    1.210072   -0.000016 
H       -2.284637    2.158885   -0.000010 
C       -4.229885   -1.210010   -0.000018 
H       -2.284837   -2.159003    0.000015 
C       -4.932105    0.000048   -0.000013 
H       -4.773248    2.158356   -0.000035 
H       -4.773413   -2.158267   -0.000047 
H       -6.024955    0.000108   -0.000040 
N        1.876570   -0.000037   -0.000015 
C        2.658737   -1.188479   -0.000000 
C        2.658651    1.188507   -0.000003 
C        4.121087   -0.766120    0.000106 
O        2.206208   -2.299003   -0.000073 
C        4.121032    0.766260   -0.000089 
O        2.206000    2.298975    0.000016 
H        4.607837   -1.208857    0.882741 
H        4.608078   -1.209127   -0.882248 
H        4.607976    1.209301    0.882282 
H        4.607763    1.209042   -0.882707 
