23
0 1
C       -1.054997    0.077573   -0.000345 
H       -1.052711   -1.013594    0.000019 
C        0.023669    0.872806   -0.000579 
H       -0.155559    1.952392   -0.000829 
C        1.426758    0.440908   -0.000398 
C        2.440288    1.419649    0.000250 
C        1.824226   -0.913501   -0.000831 
C        3.792644    1.074593    0.000580 
H        2.160842    2.476474    0.000529 
C        3.169596   -1.273364   -0.000488 
H        1.072512   -1.705565   -0.001538 
C        4.141724   -0.272507    0.000237 
H        4.577315    1.833612    0.001093 
H        3.479784   -2.320173   -0.000832 
F        5.437484   -0.618148    0.000572 
O       -2.310406    0.642941   -0.000554 
C       -3.377084   -0.183758    0.000120 
O       -3.338420   -1.386609    0.000780 
O       -4.472168    0.571173   -0.000091 
C       -5.712546   -0.136762    0.000422 
H       -5.798991   -0.773678    0.893559 
H       -6.496585    0.629893    0.003133 
H       -5.801679   -0.769885   -0.895177 
