26
0 1
C        1.086864    0.080026   -0.000117 
H        1.077208   -1.010935   -0.000087 
C        0.013624    0.882632   -0.000084 
H        0.200054    1.961191   -0.000071 
C       -1.391814    0.459866   -0.000023 
C       -2.400889    1.439520    0.000069 
C       -1.801411   -0.890993   -0.000088 
C       -3.753514    1.091465    0.000125 
H       -2.117996    2.495944    0.000117 
C       -3.149835   -1.232159   -0.000027 
H       -1.055486   -1.689187   -0.000186 
C       -4.158025   -0.249772    0.000068 
H       -4.509770    1.881762    0.000218 
H       -3.431676   -2.289533   -0.000060 
C       -5.615387   -0.639919    0.000006 
H       -5.868513   -1.247639    0.885271 
H       -6.271084    0.243309    0.000891 
H       -5.868833   -1.246046   -0.886273 
O        2.347212    0.637770   -0.000146 
C        3.408215   -0.193867    0.000001 
O        3.365148   -1.396784    0.000136 
O        4.508430    0.555359   -0.000032 
C        5.743900   -0.160042    0.000094 
H        5.828257   -0.795947   -0.894075 
H        6.532986    0.601552    0.000061 
H        5.828172   -0.795781    0.894389 
