16
0 1
C        1.310122    0.145371   -0.000359 
H        1.199777    1.232248   -0.000950 
C        2.470175   -0.512438    0.000278 
H        2.439548   -1.607799    0.000888 
C        3.809574    0.159976    0.000156 
H        3.717015    1.257071   -0.000400 
H        4.402952   -0.129778    0.884958 
H        4.403240   -0.130639   -0.884176 
O        0.116890   -0.553220   -0.000401 
C       -1.029378    0.151161   -0.000070 
O       -1.127166    1.351207    0.000152 
O       -2.039180   -0.718586   -0.000071 
C       -3.346538   -0.146755    0.000220 
H       -3.502540    0.476389   -0.893414 
H       -4.045508   -0.991965   -0.000249 
H       -3.502571    0.475386    0.894553 
