21
0 1
C        1.204040    0.700321   -0.190759 
C        0.006096    0.525153   -0.148603 
C       -1.404652    0.287929   -0.086619 
C       -1.904564   -0.940519    0.395724 
C       -2.323491    1.273483   -0.504929 
C       -3.276592   -1.177963    0.458613 
H       -1.202735   -1.710348    0.722111 
C       -3.696848    1.041881   -0.444410 
H       -1.950018    2.228232   -0.880148 
C       -4.156456   -0.182487    0.037207 
H       -3.675668   -2.123953    0.829699 
H       -4.417788    1.796369   -0.765064 
F       -5.476641   -0.408118    0.096562 
O        2.484354    0.978402   -0.272279 
C        3.390781    0.020342    0.133447 
O        3.106193   -1.058320    0.559681 
O        4.593229    0.541347   -0.047489 
C        5.693160   -0.299472    0.315668 
H        5.684784   -1.225462   -0.278104 
H        6.597474    0.282444    0.103256 
H        5.645950   -0.558511    1.383735 
