15
0 1
C        1.525392   -0.387413   -0.376921 
C        2.707519   -0.322199   -0.127410 
C        4.131292   -0.233237    0.181637 
H        4.303889    0.455432    1.025108 
H        4.543632   -1.215197    0.466527 
H        4.710551    0.141441   -0.678251 
O        0.253935   -0.505765   -0.693385 
O       -0.778512    1.835200   -0.531516 
O       -2.155621   -0.187609   -0.472800 
C       -2.526668   -1.470072    0.076388 
H       -2.570523   -1.419462    1.173108 
H       -3.520043   -1.680165   -0.337995 
H       -1.809569   -2.239237   -0.244913 
S       -0.850563    0.540567    0.093657 
O       -0.704068    0.331379    1.519667 
