27
0 1
C       -0.613469   -0.200227    0.472203 
H       -0.568718   -1.216062    0.074630 
C        0.426199    0.626144    0.641515 
H        0.210612    1.617710    1.052252 
C        1.834249    0.332484    0.346871 
C        2.797945    1.335292    0.553247 
C        2.286064   -0.911730   -0.142143 
C        4.149404    1.111407    0.281249 
H        2.480926    2.310198    0.934177 
C        3.632998   -1.129007   -0.412252 
H        1.576603   -1.725101   -0.311296 
C        4.596386   -0.123187   -0.207317 
H        4.870775    1.915177    0.453981 
H        3.949618   -2.105781   -0.790202 
C        6.053202   -0.379454   -0.503197 
H        6.204615   -0.660011   -1.559207 
H        6.670311    0.507924   -0.299335 
H        6.446034   -1.210045    0.107358 
O       -1.881753    0.210017    0.866468 
O       -4.307304   -0.057268    0.973168 
O       -3.218156    0.277161   -1.269578 
C       -3.658351    1.646958   -1.293285 
H       -2.962822    2.287410   -0.729772 
H       -3.655396    1.932708   -2.352481 
H       -4.671581    1.733505   -0.876186 
S       -3.194080   -0.484341    0.157102 
O       -2.901969   -1.866191   -0.149921 
