20
0 1
C        0.605691   -0.063229   -0.488344 
C        1.355671    1.101165   -0.667926 
C        1.196661   -1.248493   -0.045696 
C        2.728086    1.076181   -0.415090 
H        0.857666    2.012482   -1.001892 
C        2.569131   -1.275336    0.207280 
H        0.578495   -2.135414    0.099410 
C        3.315042   -0.112564    0.017308 
H        3.348686    1.964320   -0.546924 
H        3.068363   -2.182910    0.551369 
F        4.632154   -0.138307    0.257403 
O       -0.756929   -0.048617   -0.797989 
O       -1.641460    1.743072    0.763693 
O       -3.142182    0.232404   -0.447479 
C       -3.621837   -1.078786   -0.799119 
H       -3.711124   -1.709647    0.096491 
H       -4.608737   -0.913784   -1.248726 
H       -2.947088   -1.547083   -1.531119 
S       -1.802847    0.348367    0.427437 
O       -1.749525   -0.703198    1.428689 
