25
0 1
C        0.705135    0.046374   -0.647959 
C       -0.497853    0.013106   -0.486892 
C       -1.916250   -0.020967   -0.291198 
C       -2.563770   -1.204509    0.116814 
C       -2.704329    1.129621   -0.505013 
C       -3.944937   -1.230535    0.304267 
H       -1.970130   -2.105616    0.284502 
C       -4.083429    1.090575   -0.315920 
H       -2.219392    2.054664   -0.823890 
C       -4.732052   -0.086904    0.094687 
H       -4.424166   -2.161790    0.619608 
H       -4.672748    1.995415   -0.491255 
C       -6.222673   -0.108431    0.325503 
H       -6.758645    0.472820   -0.441340 
H       -6.619853   -1.134439    0.317326 
H       -6.478148    0.335844    1.303693 
O        1.992785    0.072051   -0.889443 
O        2.785072   -0.673957    1.426758 
O        4.384859    0.059865   -0.376221 
C        4.702682   -1.308349   -0.711404 
H        4.003773   -1.681192   -1.473946 
H        5.721622   -1.272161   -1.115176 
H        4.666804   -1.941218    0.186027 
S        3.046657    0.357871    0.444386 
O        3.030937    1.766022    0.742276 
