24
0 1
C        0.156039    0.234643    0.421634 
H        0.147606    1.232006   -0.022570 
C       -0.908841   -0.557064    0.598920 
H       -0.730590   -1.534311    1.058676 
C       -2.300864   -0.240801    0.251416 
C       -3.291072   -1.218186    0.469988 
C       -2.702122    0.995500   -0.296833 
C       -4.628852   -0.976557    0.150783 
H       -3.002144   -2.182479    0.897214 
C       -4.037070    1.235930   -0.616285 
H       -1.965181    1.782377   -0.472765 
C       -5.008647    0.251902   -0.395056 
H       -5.377503   -1.752379    0.330660 
H       -4.324304    2.201870   -1.039647 
H       -6.054688    0.445255   -0.645163 
O        1.401542   -0.188404    0.866748 
O        3.826591    0.043760    1.050303 
O        2.810175   -0.353410   -1.216105 
C        3.230318   -1.729412   -1.176854 
H        2.507118   -2.339468   -0.614502 
H        3.257454   -2.052463   -2.224908 
H        4.228019   -1.814984   -0.723780 
S        2.750920    0.459549    0.180211 
O        2.492463    1.833812   -0.185056 
