10
0 1
O        0.317438   -0.774364    0.681159 
O        0.301474    1.583387   -0.283432 
O       -0.839809   -0.382226   -1.377089 
C        0.220816   -0.482681   -2.351639 
H        1.028295   -1.122595   -1.968134 
H       -0.244615   -0.945016   -3.230529 
H        0.607894    0.514791   -2.601130 
S       -0.580452    0.460040   -0.037579 
O       -1.844235    0.587438    0.641112 
Cl       1.042197   -0.315680    2.177978 
