13
0 1
C       -0.102000   -0.650111    1.987815 
H        0.627865   -1.347614    1.547758 
H        0.409619    0.039429    2.674174 
H       -0.879596   -1.211093    2.521662 
O       -0.793524    0.078386    0.960216 
O        1.163010    1.646974    0.774034 
O        0.819444   -0.037681   -0.958924 
C        0.024482   -0.641460   -1.992536 
H       -0.373745    0.124895   -2.672522 
H        0.706434   -1.311252   -2.531672 
H       -0.804878   -1.221490   -1.558265 
S        0.092713    1.050873    0.005372 
O       -0.872606    1.811469   -0.757111 
