17
0 1
C       -1.504416    0.351710    0.053730 
H       -1.468645    1.074796   -0.765585 
C       -2.581052   -0.344632    0.415989 
H       -2.485444   -1.035933    1.260929 
C       -3.919572   -0.217000   -0.246062 
H       -4.265473   -1.191239   -0.632390 
H       -4.686317    0.128482    0.468896 
H       -3.895693    0.493538   -1.086403 
O       -0.316100    0.227433    0.772296 
O        2.080655    0.582060    1.072163 
O        1.292551   -0.829319   -0.854642 
C        1.673899   -2.023447   -0.149458 
H        0.884129   -2.327403    0.554547 
H        1.799127   -2.789719   -0.924636 
H        2.618568   -1.867870    0.390584 
S        1.105061    0.528018    0.007266 
O        0.918596    1.578236   -0.968239 
